pglib_opf_case73_ieee_rts/dapi/pglib_opf_case73_ieee_rts_2regions_dapi.m
% -------------------------------------------------------------------------
% Partitioned MATPOWER Case File
% Copyright (c) 2025 Milad Hasanzadeh
% Generated on: 2026-06-14
% This file contains partitioned data for 2 regions


% -------------------- mpc_regionR1 --------------------

mpc_regionR1.version = '2';
mpc_regionR1.baseMVA = 100.0000;
mpc_regionR1.bus = [
%	bus_i       type        Pd          Qd          Gs          Bs          area        Vm          Va          baseKV      zone        Vmax        Vmin        
	 1	 2	 207.37	 22	 0	 0	 3	 1	 0	 138	 3	 1.05	 0.95;
	 2	 2	 186.24	 20	 0	 0	 3	 1	 0	 138	 3	 1.05	 0.95;
	 3	 1	 345.61	 37	 0	 0	 3	 1	 0	 138	 3	 1.05	 0.95;
	 4	 1	 142.08	 15	 0	 0	 3	 1	 0	 138	 3	 1.05	 0.95;
	 5	 1	 136.32	 14	 0	 0	 3	 1	 0	 138	 3	 1.05	 0.95;
	 6	 1	 261.13	 28	 0	-100	 3	 1	 0	 138	 3	 1.05	 0.95;
	 7	 2	 240.01	 25	 0	 0	 3	 1	 0	 138	 3	 1.05	 0.95;
	 8	 1	 328.33	 35	 0	 0	 3	 1	 0	 138	 3	 1.05	 0.95;
	 9	 1	 336.01	 36	 0	 0	 3	 1	 0	 138	 3	 1.05	 0.95;
	 10	 1	 374.41	 40	 0	 0	 3	 1	 0	 138	 3	 1.05	 0.95;
	 11	 1	 0	 0	 0	 0	 3	 1	 0	 230	 3	 1.05	 0.95;
	 12	 1	 0	 0	 0	 0	 3	 1	 0	 230	 3	 1.05	 0.95;
	 13	 2	 508.81	 54	 0	 0	 3	 1	 0	 230	 3	 1.05	 0.95;
	 14	 2	 372.49	 39	 0	 0	 3	 1	 0	 230	 3	 1.05	 0.95;
	 15	 2	 608.66	 64	 0	 0	 3	 1	 0	 230	 3	 1.05	 0.95;
	 16	 2	 192	 20	 0	 0	 3	 1	 0	 230	 3	 1.05	 0.95;
	 17	 1	 0	 0	 0	 0	 3	 1	 0	 230	 3	 1.05	 0.95;
	 18	 2	 639.38	 68	 0	 0	 3	 1	 0	 230	 3	 1.05	 0.95;
	 19	 1	 347.53	 37	 0	 0	 3	 1	 0	 230	 3	 1.05	 0.95;
	 20	 1	 245.77	 26	 0	 0	 3	 1	 0	 230	 3	 1.05	 0.95;
	 21	 2	 0	 0	 0	 0	 3	 1	 0	 230	 3	 1.05	 0.95;
	 22	 2	 0	 0	 0	 0	 3	 1	 0	 230	 3	 1.05	 0.95;
	 23	 2	 0	 0	 0	 0	 3	 1	 0	 230	 3	 1.05	 0.95;
	 24	 1	 0	 0	 0	 0	 3	 1	 0	 230	 3	 1.05	 0.95;
	 25	 1	 0	 0	 0	 0	 3	 1	 0	 230	 3	 1.05	 0.95;
];

mpc_regionR1.gen = [
%	bus         Pg          Qg          Qmax        Qmin        Vg          mBase       status      Pmax        Pmin        Pc1         Pc2         Qc1min      Qc1max      Qc2min      Qc2max      ramp_agc    ramp_10     ramp_30     ramp_q      apf         
	 1	 122.5	 0	 119	-119	 1	 100	 1	 237	 8;
	 1	 73	 0	 69	-69	 1	 100	 1	 138	 8;
	 1	 105.3	 0	 102	-102	 1	 100	 1	 203	 7.6;
	 1	 73.8	 0	 70	-70	 1	 100	 1	 140	 7.6;
	 2	 152	 0	 148	-148	 1	 100	 1	 296	 8;
	 2	 95	 0	 91	-91	 1	 100	 1	 182	 8;
	 2	 86.8	 0	 83	-83	 1	 100	 1	 166	 7.6;
	 2	 93.3	 0	 90	-90	 1	 100	 1	 179	 7.6;
	 7	 79.75	 0	 74	-74	 1	 100	 1	 147	 12.5;
	 7	 147.75	 0	 142	-142	 1	 100	 1	 283	 12.5;
	 7	 116.25	 0	 110	-110	 1	 100	 1	 220	 12.5;
	 13	 273.75	 0	 257	-257	 1	 100	 1	 513	 34.5;
	 13	 277.75	 0	 261	-261	 1	 100	 1	 521	 34.5;
	 13	 322.25	 0	 305	-305	 1	 100	 1	 610	 34.5;
	 14	 0	 0	 284.4	-284.4	 1	 100	 1	 0	 0;
	 15	 202.6	 0	 202	-202	 1	 100	 1	 404	 1.2;
	 15	 101.6	 0	 102	-102	 1	 100	 1	 202	 1.2;
	 15	 148.1	 0	 148	-148	 1	 100	 1	 295	 1.2;
	 15	 190.1	 0	 190	-190	 1	 100	 1	 379	 1.2;
	 15	 55.1	 0	 102	-102	 1	 100	 1	 109	 1.2;
	 15	 112.575	 0	 102	-102	 1	 100	 1	 198	 27.15;
	 16	 372.075	 0	 359	-359	 1	 100	 1	 717	 27.15;
	 18	 317.5	 0	 293	-293	 1	 100	 1	 585	 50;
	 21	 165.5	 23.2	 200	-153.6	 1	 100	 1	 281	 50;
	 22	 48	 0	 46	-46	 1	 100	 1	 91	 5;
	 22	 83.5	 0	 81	-81	 1	 100	 1	 162	 5;
	 22	 64	 0	 62	-62	 1	 100	 1	 123	 5;
	 22	 36	 0	 34	-34	 1	 100	 1	 67	 5;
	 22	 64	 0	 62	-62	 1	 100	 1	 123	 5;
	 22	 88	 0	 86	-86	 1	 100	 1	 171	 5;
	 23	 155.075	 0	 142	-142	 1	 100	 1	 283	 27.15;
	 23	 192.575	 0	 179	-179	 1	 100	 1	 358	 27.15;
	 23	 202.5	 0	 168	-168	 1	 100	 1	 335	 70;
];

mpc_regionR1.branch = [
%	fbus        tbus        r           x           b           rateA       rateB       rateC       ratio       angle       status      angmin      angmax      
	 1	 2	 0.003	 0.014	 0.461	 175	 193	 200	 0	 0	 1	-30	 30;
	 1	 3	 0.055	 0.211	 0.057	 175	 208	 220	 0	 0	 1	-30	 30;
	 1	 5	 0.022	 0.085	 0.023	 175	 208	 220	 0	 0	 1	-30	 30;
	 2	 4	 0.033	 0.127	 0.034	 175	 208	 220	 0	 0	 1	-30	 30;
	 2	 6	 0.05	 0.192	 0.052	 175	 208	 220	 0	 0	 1	-30	 30;
	 3	 9	 0.031	 0.119	 0.032	 175	 208	 220	 0	 0	 1	-30	 30;
	 3	 24	 0.002	 0.084	 0	 400	 510	 600	 1.015	 0	 1	-30	 30;
	 4	 9	 0.027	 0.104	 0.028	 175	 208	 220	 0	 0	 1	-30	 30;
	 5	 10	 0.023	 0.088	 0.024	 175	 208	 220	 0	 0	 1	-30	 30;
	 6	 10	 0.014	 0.061	 2.459	 175	 193	 200	 0	 0	 1	-30	 30;
	 7	 8	 0.016	 0.061	 0.017	 175	 208	 220	 0	 0	 1	-30	 30;
	 8	 9	 0.043	 0.165	 0.045	 175	 208	 220	 0	 0	 1	-30	 30;
	 8	 10	 0.043	 0.165	 0.045	 175	 208	 220	 0	 0	 1	-30	 30;
	 9	 11	 0.002	 0.084	 0	 400	 510	 600	 1.03	 0	 1	-30	 30;
	 9	 12	 0.002	 0.084	 0	 400	 510	 600	 1.03	 0	 1	-30	 30;
	 10	 11	 0.002	 0.084	 0	 400	 510	 600	 1.015	 0	 1	-30	 30;
	 10	 12	 0.002	 0.084	 0	 400	 510	 600	 1.015	 0	 1	-30	 30;
	 11	 13	 0.006	 0.048	 0.1	 500	 600	 625	 0	 0	 1	-30	 30;
	 11	 14	 0.005	 0.042	 0.088	 500	 600	 625	 0	 0	 1	-30	 30;
	 12	 13	 0.006	 0.048	 0.1	 500	 600	 625	 0	 0	 1	-30	 30;
	 12	 23	 0.012	 0.097	 0.203	 500	 600	 625	 0	 0	 1	-30	 30;
	 13	 23	 0.011	 0.087	 0.182	 500	 600	 625	 0	 0	 1	-30	 30;
	 14	 16	 0.005	 0.059	 0.082	 500	 600	 625	 0	 0	 1	-30	 30;
	 15	 16	 0.002	 0.017	 0.036	 500	 600	 625	 0	 0	 1	-30	 30;
	 15	 21	 0.006	 0.049	 0.103	 500	 600	 625	 0	 0	 1	-30	 30;
	 15	 21	 0.006	 0.049	 0.103	 500	 600	 625	 0	 0	 1	-30	 30;
	 15	 24	 0.007	 0.052	 0.109	 500	 600	 625	 0	 0	 1	-30	 30;
	 16	 17	 0.003	 0.026	 0.055	 500	 600	 625	 0	 0	 1	-30	 30;
	 16	 19	 0.003	 0.023	 0.049	 500	 600	 625	 0	 0	 1	-30	 30;
	 17	 18	 0.002	 0.014	 0.03	 500	 600	 625	 0	 0	 1	-30	 30;
	 17	 22	 0.014	 0.105	 0.221	 500	 600	 625	 0	 0	 1	-30	 30;
	 18	 21	 0.003	 0.026	 0.055	 500	 600	 625	 0	 0	 1	-30	 30;
	 18	 21	 0.003	 0.026	 0.055	 500	 600	 625	 0	 0	 1	-30	 30;
	 19	 20	 0.005	 0.04	 0.083	 500	 600	 625	 0	 0	 1	-30	 30;
	 19	 20	 0.005	 0.04	 0.083	 500	 600	 625	 0	 0	 1	-30	 30;
	 20	 23	 0.003	 0.022	 0.046	 500	 600	 625	 0	 0	 1	-30	 30;
	 20	 23	 0.003	 0.022	 0.046	 500	 600	 625	 0	 0	 1	-30	 30;
	 21	 22	 0.009	 0.068	 0.142	 500	 600	 625	 0	 0	 1	-30	 30;
	 23	 25	 0	 0.009	 0	 722	 893	 893	 0	 0	 1	-30	 30;
];

mpc_regionR1.gencost = [
%	2           startup     shutdown    n           c(n-1)...c0 
	 2	 1500	 0	 3	 0	 130	 400.6849;
	 2	 1500	 0	 3	 0	 130	 400.6849;
	 2	 1500	 0	 3	 0.014142	 16.0811	 212.3076;
	 2	 1500	 0	 3	 0.014142	 16.0811	 212.3076;
	 2	 1500	 0	 3	 0	 130	 400.6849;
	 2	 1500	 0	 3	 0	 130	 400.6849;
	 2	 1500	 0	 3	 0.014142	 16.0811	 212.3076;
	 2	 1500	 0	 3	 0.014142	 16.0811	 212.3076;
	 2	 1500	 0	 3	 0.052672	 43.6615	 781.521;
	 2	 1500	 0	 3	 0.052672	 43.6615	 781.521;
	 2	 1500	 0	 3	 0.052672	 43.6615	 781.521;
	 2	 1500	 0	 3	 0.00717	 48.5804	 832.7575;
	 2	 1500	 0	 3	 0.00717	 48.5804	 832.7575;
	 2	 1500	 0	 3	 0.00717	 48.5804	 832.7575;
	 2	 1500	 0	 3	 0	 0	 0;
	 2	 1500	 0	 3	 0.328412	 56.564	 86.3852;
	 2	 1500	 0	 3	 0.328412	 56.564	 86.3852;
	 2	 1500	 0	 3	 0.328412	 56.564	 86.3852;
	 2	 1500	 0	 3	 0.328412	 56.564	 86.3852;
	 2	 1500	 0	 3	 0.328412	 56.564	 86.3852;
	 2	 1500	 0	 3	 0.008342	 12.3883	 382.2391;
	 2	 1500	 0	 3	 0.008342	 12.3883	 382.2391;
	 2	 1500	 0	 3	 0.000213	 4.4231	 395.3749;
	 2	 1500	 0	 3	 0.000213	 4.4231	 395.3749;
	 2	 1500	 0	 3	 0	 0.001	 0.001;
	 2	 1500	 0	 3	 0	 0.001	 0.001;
	 2	 1500	 0	 3	 0	 0.001	 0.001;
	 2	 1500	 0	 3	 0	 0.001	 0.001;
	 2	 1500	 0	 3	 0	 0.001	 0.001;
	 2	 1500	 0	 3	 0	 0.001	 0.001;
	 2	 1500	 0	 3	 0.008342	 12.3883	 382.2391;
	 2	 1500	 0	 3	 0.008342	 12.3883	 382.2391;
	 2	 1500	 0	 3	 0.004895	 11.8495	 665.1094;
];


% -------------------- mpc_regionR2 --------------------

mpc_regionR2.version = '2';
mpc_regionR2.baseMVA = 100.0000;
mpc_regionR2.bus = [
%	bus_i       type        Pd          Qd          Gs          Bs          area        Vm          Va          baseKV      zone        Vmax        Vmin        
	 1	 2	 207.37	 22	 0	 0	 1	 1	 0	 138	 1	 1.05	 0.95;
	 2	 2	 186.24	 20	 0	 0	 1	 1	 0	 138	 1	 1.05	 0.95;
	 3	 1	 345.61	 37	 0	 0	 1	 1	 0	 138	 1	 1.05	 0.95;
	 4	 1	 142.08	 15	 0	 0	 1	 1	 0	 138	 1	 1.05	 0.95;
	 5	 1	 136.32	 14	 0	 0	 1	 1	 0	 138	 1	 1.05	 0.95;
	 6	 1	 261.13	 28	 0	-100	 1	 1	 0	 138	 1	 1.05	 0.95;
	 7	 2	 240.01	 25	 0	 0	 1	 1	 0	 138	 1	 1.05	 0.95;
	 8	 1	 328.33	 35	 0	 0	 1	 1	 0	 138	 1	 1.05	 0.95;
	 9	 1	 336.01	 36	 0	 0	 1	 1	 0	 138	 1	 1.05	 0.95;
	 10	 1	 374.41	 40	 0	 0	 1	 1	 0	 138	 1	 1.05	 0.95;
	 11	 1	 0	 0	 0	 0	 1	 1	 0	 230	 1	 1.05	 0.95;
	 12	 1	 0	 0	 0	 0	 1	 1	 0	 230	 1	 1.05	 0.95;
	 13	 3	 508.81	 54	 0	 0	 1	 1	 0	 230	 1	 1.05	 0.95;
	 14	 2	 372.49	 39	 0	 0	 1	 1	 0	 230	 1	 1.05	 0.95;
	 15	 2	 608.66	 64	 0	 0	 1	 1	 0	 230	 1	 1.05	 0.95;
	 16	 2	 192	 20	 0	 0	 1	 1	 0	 230	 1	 1.05	 0.95;
	 17	 1	 0	 0	 0	 0	 1	 1	 0	 230	 1	 1.05	 0.95;
	 18	 2	 639.38	 68	 0	 0	 1	 1	 0	 230	 1	 1.05	 0.95;
	 19	 1	 347.53	 37	 0	 0	 1	 1	 0	 230	 1	 1.05	 0.95;
	 20	 1	 245.77	 26	 0	 0	 1	 1	 0	 230	 1	 1.05	 0.95;
	 21	 2	 0	 0	 0	 0	 1	 1	 0	 230	 1	 1.05	 0.95;
	 22	 2	 0	 0	 0	 0	 1	 1	 0	 230	 1	 1.05	 0.95;
	 23	 2	 0	 0	 0	 0	 1	 1	 0	 230	 1	 1.05	 0.95;
	 24	 1	 0	 0	 0	 0	 1	 1	 0	 230	 1	 1.05	 0.95;
	 25	 2	 207.37	 22	 0	 0	 2	 1	 0	 138	 2	 1.05	 0.95;
	 26	 2	 186.24	 20	 0	 0	 2	 1	 0	 138	 2	 1.05	 0.95;
	 27	 1	 345.61	 37	 0	 0	 2	 1	 0	 138	 2	 1.05	 0.95;
	 28	 1	 142.08	 15	 0	 0	 2	 1	 0	 138	 2	 1.05	 0.95;
	 29	 1	 136.32	 14	 0	 0	 2	 1	 0	 138	 2	 1.05	 0.95;
	 30	 1	 261.13	 28	 0	-100	 2	 1	 0	 138	 2	 1.05	 0.95;
	 31	 2	 240.01	 25	 0	 0	 2	 1	 0	 138	 2	 1.05	 0.95;
	 32	 1	 328.33	 35	 0	 0	 2	 1	 0	 138	 2	 1.05	 0.95;
	 33	 1	 336.01	 36	 0	 0	 2	 1	 0	 138	 2	 1.05	 0.95;
	 34	 1	 374.41	 40	 0	 0	 2	 1	 0	 138	 2	 1.05	 0.95;
	 35	 1	 0	 0	 0	 0	 2	 1	 0	 230	 2	 1.05	 0.95;
	 36	 1	 0	 0	 0	 0	 2	 1	 0	 230	 2	 1.05	 0.95;
	 37	 2	 508.81	 54	 0	 0	 2	 1	 0	 230	 2	 1.05	 0.95;
	 38	 2	 372.49	 39	 0	 0	 2	 1	 0	 230	 2	 1.05	 0.95;
	 39	 2	 608.66	 64	 0	 0	 2	 1	 0	 230	 2	 1.05	 0.95;
	 40	 2	 192	 20	 0	 0	 2	 1	 0	 230	 2	 1.05	 0.95;
	 41	 1	 0	 0	 0	 0	 2	 1	 0	 230	 2	 1.05	 0.95;
	 42	 2	 639.38	 68	 0	 0	 2	 1	 0	 230	 2	 1.05	 0.95;
	 43	 1	 347.53	 37	 0	 0	 2	 1	 0	 230	 2	 1.05	 0.95;
	 44	 1	 245.77	 26	 0	 0	 2	 1	 0	 230	 2	 1.05	 0.95;
	 45	 2	 0	 0	 0	 0	 2	 1	 0	 230	 2	 1.05	 0.95;
	 46	 2	 0	 0	 0	 0	 2	 1	 0	 230	 2	 1.05	 0.95;
	 47	 2	 0	 0	 0	 0	 2	 1	 0	 230	 2	 1.05	 0.95;
	 48	 1	 0	 0	 0	 0	 2	 1	 0	 230	 2	 1.05	 0.95;
];

mpc_regionR2.gen = [
%	bus         Pg          Qg          Qmax        Qmin        Vg          mBase       status      Pmax        Pmin        Pc1         Pc2         Qc1min      Qc1max      Qc2min      Qc2max      ramp_agc    ramp_10     ramp_30     ramp_q      apf         
	 1	 46.5	 0	 43	-43	 1	 100	 1	 85	 8;
	 1	 52.5	 0	 49	-49	 1	 100	 1	 97	 8;
	 1	 102.3	 0	 99	-99	 1	 100	 1	 197	 7.6;
	 1	 63.3	 0	 60	-60	 1	 100	 1	 119	 7.6;
	 2	 146	 0	 142	-142	 1	 100	 1	 284	 8;
	 2	 95.5	 0	 92	-92	 1	 100	 1	 183	 8;
	 2	 83.3	 0	 80	-80	 1	 100	 1	 159	 7.6;
	 2	 112.8	 0	 109	-109	 1	 100	 1	 218	 7.6;
	 7	 216.25	 0	 210	-210	 1	 100	 1	 420	 12.5;
	 7	 137.75	 0	 132	-132	 1	 100	 1	 263	 12.5;
	 7	 144.75	 0	 139	-139	 1	 100	 1	 277	 12.5;
	 13	 247.75	 0	 231	-231	 1	 100	 1	 461	 34.5;
	 13	 269.25	 0	 252	-252	 1	 100	 1	 504	 34.5;
	 13	 1043.25	 0	 1026	-1026	 1	 100	 1	 2052	 34.5;
	 14	 0	 0	 279.6	-279.6	 1	 100	 1	 0	 0;
	 15	 83.1	 0	 102	-102	 1	 100	 1	 165	 1.2;
	 15	 107.6	 0	 107	-107	 1	 100	 1	 214	 1.2;
	 15	 198.1	 0	 198	-198	 1	 100	 1	 395	 1.2;
	 15	 137.6	 0	 137	-137	 1	 100	 1	 274	 1.2;
	 15	 76.1	 0	 102	-102	 1	 100	 1	 151	 1.2;
	 15	 140.575	 0	 127	-127	 1	 100	 1	 254	 27.15;
	 16	 404.575	 0	 391	-391	 1	 100	 1	 782	 27.15;
	 18	 262	 0	 237	-237	 1	 100	 1	 474	 50;
	 21	 149	 4.6	 200	-190.8	 1	 100	 1	 248	 50;
	 22	 155	 0	 153	-153	 1	 100	 1	 305	 5;
	 22	 78.5	 0	 76	-76	 1	 100	 1	 152	 5;
	 22	 63	 0	 61	-61	 1	 100	 1	 121	 5;
	 22	 61.5	 0	 59	-59	 1	 100	 1	 118	 5;
	 22	 95.5	 0	 93	-93	 1	 100	 1	 186	 5;
	 22	 65	 0	 63	-63	 1	 100	 1	 125	 5;
	 23	 309.575	 0	 296	-296	 1	 100	 1	 592	 27.15;
	 23	 171.575	 0	 158	-158	 1	 100	 1	 316	 27.15;
	 23	 258	 0	 223	-223	 1	 100	 1	 446	 70;
	 25	 61	 0	 57	-57	 1	 100	 1	 114	 8;
	 25	 45	 0	 41	-41	 1	 100	 1	 82	 8;
	 25	 69.8	 0	 66	-66	 1	 100	 1	 132	 7.6;
	 25	 75.3	 0	 72	-72	 1	 100	 1	 143	 7.6;
	 26	 396	 0	 392	-392	 1	 100	 1	 784	 8;
	 26	 120.5	 0	 117	-117	 1	 100	 1	 233	 8;
	 26	 105.3	 0	 102	-102	 1	 100	 1	 203	 7.6;
	 26	 240.3	 0	 237	-237	 1	 100	 1	 473	 7.6;
	 31	 93.25	 0	 87	-87	 1	 100	 1	 174	 12.5;
	 31	 219.25	 0	 213	-213	 1	 100	 1	 426	 12.5;
	 31	 72.25	 0	 66	-66	 1	 100	 1	 132	 12.5;
	 37	 230.75	 0	 214	-214	 1	 100	 1	 427	 34.5;
	 37	 241.25	 0	 224	-224	 1	 100	 1	 448	 34.5;
	 37	 349.25	 0	 332	-332	 1	 100	 1	 664	 34.5;
	 38	 0	 0	 278.4	-278.4	 1	 100	 1	 0	 0;
	 39	 146.6	 0	 146	-146	 1	 100	 1	 292	 1.2;
	 39	 185.1	 0	 185	-185	 1	 100	 1	 369	 1.2;
	 39	 105.6	 0	 105	-105	 1	 100	 1	 210	 1.2;
	 39	 211.1	 0	 211	-211	 1	 100	 1	 421	 1.2;
	 39	 152.1	 0	 152	-152	 1	 100	 1	 303	 1.2;
	 39	 108.075	 0	 95	-95	 1	 100	 1	 189	 27.15;
	 40	 339.075	 0	 326	-326	 1	 100	 1	 651	 27.15;
	 42	 193	 16	 200	-168	 1	 100	 1	 336	 50;
	 45	 169.5	 27.5	 200	-145	 1	 100	 1	 289	 50;
	 46	 99.5	 0	 97	-97	 1	 100	 1	 194	 5;
	 46	 86	 0	 84	-84	 1	 100	 1	 167	 5;
	 46	 124	 0	 122	-122	 1	 100	 1	 243	 5;
	 46	 54	 0	 52	-52	 1	 100	 1	 103	 5;
	 46	 90	 0	 88	-88	 1	 100	 1	 175	 5;
	 46	 50	 0	 48	-48	 1	 100	 1	 95	 5;
	 47	 142.075	 0	 129	-129	 1	 100	 1	 257	 27.15;
	 47	 184.575	 0	 171	-171	 1	 100	 1	 342	 27.15;
	 47	 311.5	 0	 277	-277	 1	 100	 1	 553	 70;
];

mpc_regionR2.branch = [
%	fbus        tbus        r           x           b           rateA       rateB       rateC       ratio       angle       status      angmin      angmax      
	 1	 2	 0.003	 0.014	 0.461	 175	 193	 200	 0	 0	 1	-30	 30;
	 1	 3	 0.055	 0.211	 0.057	 175	 208	 220	 0	 0	 1	-30	 30;
	 1	 5	 0.022	 0.085	 0.023	 175	 208	 220	 0	 0	 1	-30	 30;
	 2	 4	 0.033	 0.127	 0.034	 175	 208	 220	 0	 0	 1	-30	 30;
	 2	 6	 0.05	 0.192	 0.052	 175	 208	 220	 0	 0	 1	-30	 30;
	 3	 9	 0.031	 0.119	 0.032	 175	 208	 220	 0	 0	 1	-30	 30;
	 3	 24	 0.002	 0.084	 0	 400	 510	 600	 1.015	 0	 1	-30	 30;
	 4	 9	 0.027	 0.104	 0.028	 175	 208	 220	 0	 0	 1	-30	 30;
	 5	 10	 0.023	 0.088	 0.024	 175	 208	 220	 0	 0	 1	-30	 30;
	 6	 10	 0.014	 0.061	 2.459	 175	 193	 200	 0	 0	 1	-30	 30;
	 7	 8	 0.016	 0.061	 0.017	 175	 208	 220	 0	 0	 1	-30	 30;
	 7	 27	 0.042	 0.161	 0.044	 175	 208	 220	 0	 0	 1	-30	 30;
	 8	 9	 0.043	 0.165	 0.045	 175	 208	 220	 0	 0	 1	-30	 30;
	 8	 10	 0.043	 0.165	 0.045	 175	 208	 220	 0	 0	 1	-30	 30;
	 9	 11	 0.002	 0.084	 0	 400	 510	 600	 1.03	 0	 1	-30	 30;
	 9	 12	 0.002	 0.084	 0	 400	 510	 600	 1.03	 0	 1	-30	 30;
	 10	 11	 0.002	 0.084	 0	 400	 510	 600	 1.015	 0	 1	-30	 30;
	 10	 12	 0.002	 0.084	 0	 400	 510	 600	 1.015	 0	 1	-30	 30;
	 11	 13	 0.006	 0.048	 0.1	 500	 600	 625	 0	 0	 1	-30	 30;
	 11	 14	 0.005	 0.042	 0.088	 500	 600	 625	 0	 0	 1	-30	 30;
	 12	 13	 0.006	 0.048	 0.1	 500	 600	 625	 0	 0	 1	-30	 30;
	 12	 23	 0.012	 0.097	 0.203	 500	 600	 625	 0	 0	 1	-30	 30;
	 13	 23	 0.011	 0.087	 0.182	 500	 600	 625	 0	 0	 1	-30	 30;
	 13	 39	 0.01	 0.075	 0.158	 500	 600	 625	 0	 0	 1	-30	 30;
	 14	 16	 0.005	 0.059	 0.082	 500	 600	 625	 0	 0	 1	-30	 30;
	 15	 16	 0.002	 0.017	 0.036	 500	 600	 625	 0	 0	 1	-30	 30;
	 15	 21	 0.006	 0.049	 0.103	 500	 600	 625	 0	 0	 1	-30	 30;
	 15	 21	 0.006	 0.049	 0.103	 500	 600	 625	 0	 0	 1	-30	 30;
	 15	 24	 0.007	 0.052	 0.109	 500	 600	 625	 0	 0	 1	-30	 30;
	 16	 17	 0.003	 0.026	 0.055	 500	 600	 625	 0	 0	 1	-30	 30;
	 16	 19	 0.003	 0.023	 0.049	 500	 600	 625	 0	 0	 1	-30	 30;
	 17	 18	 0.002	 0.014	 0.03	 500	 600	 625	 0	 0	 1	-30	 30;
	 17	 22	 0.014	 0.105	 0.221	 500	 600	 625	 0	 0	 1	-30	 30;
	 18	 21	 0.003	 0.026	 0.055	 500	 600	 625	 0	 0	 1	-30	 30;
	 18	 21	 0.003	 0.026	 0.055	 500	 600	 625	 0	 0	 1	-30	 30;
	 19	 20	 0.005	 0.04	 0.083	 500	 600	 625	 0	 0	 1	-30	 30;
	 19	 20	 0.005	 0.04	 0.083	 500	 600	 625	 0	 0	 1	-30	 30;
	 20	 23	 0.003	 0.022	 0.046	 500	 600	 625	 0	 0	 1	-30	 30;
	 20	 23	 0.003	 0.022	 0.046	 500	 600	 625	 0	 0	 1	-30	 30;
	 21	 22	 0.009	 0.068	 0.142	 500	 600	 625	 0	 0	 1	-30	 30;
	 23	 41	 0.01	 0.074	 0.155	 500	 600	 625	 0	 0	 1	-30	 30;
	 25	 26	 0.003	 0.014	 0.461	 175	 193	 200	 0	 0	 1	-30	 30;
	 25	 27	 0.055	 0.211	 0.057	 175	 208	 220	 0	 0	 1	-30	 30;
	 25	 29	 0.022	 0.085	 0.023	 175	 208	 220	 0	 0	 1	-30	 30;
	 26	 28	 0.033	 0.127	 0.034	 175	 208	 220	 0	 0	 1	-30	 30;
	 26	 30	 0.05	 0.192	 0.052	 175	 208	 220	 0	 0	 1	-30	 30;
	 27	 33	 0.031	 0.119	 0.032	 175	 208	 220	 0	 0	 1	-30	 30;
	 27	 48	 0.002	 0.084	 0	 400	 510	 600	 1.015	 0	 1	-30	 30;
	 28	 33	 0.027	 0.104	 0.028	 175	 208	 220	 0	 0	 1	-30	 30;
	 29	 34	 0.023	 0.088	 0.024	 175	 208	 220	 0	 0	 1	-30	 30;
	 30	 34	 0.014	 0.061	 2.459	 175	 193	 200	 0	 0	 1	-30	 30;
	 31	 32	 0.016	 0.061	 0.017	 175	 208	 220	 0	 0	 1	-30	 30;
	 32	 33	 0.043	 0.165	 0.045	 175	 208	 220	 0	 0	 1	-30	 30;
	 32	 34	 0.043	 0.165	 0.045	 175	 208	 220	 0	 0	 1	-30	 30;
	 33	 35	 0.002	 0.084	 0	 400	 510	 600	 1.03	 0	 1	-30	 30;
	 33	 36	 0.002	 0.084	 0	 400	 510	 600	 1.03	 0	 1	-30	 30;
	 34	 35	 0.002	 0.084	 0	 400	 510	 600	 1.015	 0	 1	-30	 30;
	 34	 36	 0.002	 0.084	 0	 400	 510	 600	 1.015	 0	 1	-30	 30;
	 35	 37	 0.006	 0.048	 0.1	 500	 600	 625	 0	 0	 1	-30	 30;
	 35	 38	 0.005	 0.042	 0.088	 500	 600	 625	 0	 0	 1	-30	 30;
	 36	 37	 0.006	 0.048	 0.1	 500	 600	 625	 0	 0	 1	-30	 30;
	 36	 47	 0.012	 0.097	 0.203	 500	 600	 625	 0	 0	 1	-30	 30;
	 37	 47	 0.011	 0.087	 0.182	 500	 600	 625	 0	 0	 1	-30	 30;
	 38	 40	 0.005	 0.059	 0.082	 500	 600	 625	 0	 0	 1	-30	 30;
	 39	 40	 0.002	 0.017	 0.036	 500	 600	 625	 0	 0	 1	-30	 30;
	 39	 45	 0.006	 0.049	 0.103	 500	 600	 625	 0	 0	 1	-30	 30;
	 39	 45	 0.006	 0.049	 0.103	 500	 600	 625	 0	 0	 1	-30	 30;
	 39	 48	 0.007	 0.052	 0.109	 500	 600	 625	 0	 0	 1	-30	 30;
	 40	 41	 0.003	 0.026	 0.055	 500	 600	 625	 0	 0	 1	-30	 30;
	 40	 43	 0.003	 0.023	 0.049	 500	 600	 625	 0	 0	 1	-30	 30;
	 41	 42	 0.002	 0.014	 0.03	 500	 600	 625	 0	 0	 1	-30	 30;
	 41	 46	 0.014	 0.105	 0.221	 500	 600	 625	 0	 0	 1	-30	 30;
	 42	 45	 0.003	 0.026	 0.055	 500	 600	 625	 0	 0	 1	-30	 30;
	 42	 45	 0.003	 0.026	 0.055	 500	 600	 625	 0	 0	 1	-30	 30;
	 43	 44	 0.005	 0.04	 0.083	 500	 600	 625	 0	 0	 1	-30	 30;
	 43	 44	 0.005	 0.04	 0.083	 500	 600	 625	 0	 0	 1	-30	 30;
	 44	 47	 0.003	 0.022	 0.046	 500	 600	 625	 0	 0	 1	-30	 30;
	 44	 47	 0.003	 0.022	 0.046	 500	 600	 625	 0	 0	 1	-30	 30;
	 45	 46	 0.009	 0.068	 0.142	 500	 600	 625	 0	 0	 1	-30	 30;
];

mpc_regionR2.gencost = [
%	2           startup     shutdown    n           c(n-1)...c0 
	 2	 1500	 0	 3	 0	 130	 400.6849;
	 2	 1500	 0	 3	 0	 130	 400.6849;
	 2	 1500	 0	 3	 0.014142	 16.0811	 212.3076;
	 2	 1500	 0	 3	 0.014142	 16.0811	 212.3076;
	 2	 1500	 0	 3	 0	 130	 400.6849;
	 2	 1500	 0	 3	 0	 130	 400.6849;
	 2	 1500	 0	 3	 0.014142	 16.0811	 212.3076;
	 2	 1500	 0	 3	 0.014142	 16.0811	 212.3076;
	 2	 1500	 0	 3	 0.052672	 43.6615	 781.521;
	 2	 1500	 0	 3	 0.052672	 43.6615	 781.521;
	 2	 1500	 0	 3	 0.052672	 43.6615	 781.521;
	 2	 1500	 0	 3	 0.00717	 48.5804	 832.7575;
	 2	 1500	 0	 3	 0.00717	 48.5804	 832.7575;
	 2	 1500	 0	 3	 0.00717	 48.5804	 832.7575;
	 2	 1500	 0	 3	 0	 0	 0;
	 2	 1500	 0	 3	 0.328412	 56.564	 86.3852;
	 2	 1500	 0	 3	 0.328412	 56.564	 86.3852;
	 2	 1500	 0	 3	 0.328412	 56.564	 86.3852;
	 2	 1500	 0	 3	 0.328412	 56.564	 86.3852;
	 2	 1500	 0	 3	 0.328412	 56.564	 86.3852;
	 2	 1500	 0	 3	 0.008342	 12.3883	 382.2391;
	 2	 1500	 0	 3	 0.008342	 12.3883	 382.2391;
	 2	 1500	 0	 3	 0.000213	 4.4231	 395.3749;
	 2	 1500	 0	 3	 0.000213	 4.4231	 395.3749;
	 2	 1500	 0	 3	 0	 0.001	 0.001;
	 2	 1500	 0	 3	 0	 0.001	 0.001;
	 2	 1500	 0	 3	 0	 0.001	 0.001;
	 2	 1500	 0	 3	 0	 0.001	 0.001;
	 2	 1500	 0	 3	 0	 0.001	 0.001;
	 2	 1500	 0	 3	 0	 0.001	 0.001;
	 2	 1500	 0	 3	 0.008342	 12.3883	 382.2391;
	 2	 1500	 0	 3	 0.008342	 12.3883	 382.2391;
	 2	 1500	 0	 3	 0.004895	 11.8495	 665.1094;
	 2	 1500	 0	 3	 0	 130	 400.6849;
	 2	 1500	 0	 3	 0	 130	 400.6849;
	 2	 1500	 0	 3	 0.014142	 16.0811	 212.3076;
	 2	 1500	 0	 3	 0.014142	 16.0811	 212.3076;
	 2	 1500	 0	 3	 0	 130	 400.6849;
	 2	 1500	 0	 3	 0	 130	 400.6849;
	 2	 1500	 0	 3	 0.014142	 16.0811	 212.3076;
	 2	 1500	 0	 3	 0.014142	 16.0811	 212.3076;
	 2	 1500	 0	 3	 0.052672	 43.6615	 781.521;
	 2	 1500	 0	 3	 0.052672	 43.6615	 781.521;
	 2	 1500	 0	 3	 0.052672	 43.6615	 781.521;
	 2	 1500	 0	 3	 0.00717	 48.5804	 832.7575;
	 2	 1500	 0	 3	 0.00717	 48.5804	 832.7575;
	 2	 1500	 0	 3	 0.00717	 48.5804	 832.7575;
	 2	 1500	 0	 3	 0	 0	 0;
	 2	 1500	 0	 3	 0.328412	 56.564	 86.3852;
	 2	 1500	 0	 3	 0.328412	 56.564	 86.3852;
	 2	 1500	 0	 3	 0.328412	 56.564	 86.3852;
	 2	 1500	 0	 3	 0.328412	 56.564	 86.3852;
	 2	 1500	 0	 3	 0.328412	 56.564	 86.3852;
	 2	 1500	 0	 3	 0.008342	 12.3883	 382.2391;
	 2	 1500	 0	 3	 0.008342	 12.3883	 382.2391;
	 2	 1500	 0	 3	 0.000213	 4.4231	 395.3749;
	 2	 1500	 0	 3	 0.000213	 4.4231	 395.3749;
	 2	 1500	 0	 3	 0	 0.001	 0.001;
	 2	 1500	 0	 3	 0	 0.001	 0.001;
	 2	 1500	 0	 3	 0	 0.001	 0.001;
	 2	 1500	 0	 3	 0	 0.001	 0.001;
	 2	 1500	 0	 3	 0	 0.001	 0.001;
	 2	 1500	 0	 3	 0	 0.001	 0.001;
	 2	 1500	 0	 3	 0.008342	 12.3883	 382.2391;
	 2	 1500	 0	 3	 0.008342	 12.3883	 382.2391;
	 2	 1500	 0	 3	 0.004895	 11.8495	 665.1094;
];


% ---------- Interregional Tie-Line Information ----------
% Each row: {From_Region (string), To_Region (string), Branch_Data (1x13 array)}
% Branch_Data: {fbus, tbus, r, x, b, rateA, rateB, rateC, ratio, angle, status, angmin, angmax}

interregional_tielines_total = {
	{'mpc_regionR1', 'mpc_regionR2', [ 25	 21	 0.012	 0.097	 0.203	 500	 600	 625	 0	 0	 1	-30	 30]},
	{'mpc_regionR1', 'mpc_regionR2', [ 18	 47	 0.013	 0.104	 0.218	 500	 600	 625	 0	 0	 1	-30	 30]},
};

